   13
 MP2/6-31G(D,P)  ENERGY=-765.55153483
 C         -1.4965508534        0.0729649297       -1.2294076054
 C         -1.5245672736        0.0450727187        0.1645943697
 C         -0.2860949856        0.0454005385       -1.9249952129
 C          0.9146545819       -0.0091471366       -1.2106976896
 C          0.9095847951       -0.0373152058        0.1872536731
 C         -0.3114302690       -0.0087086069        0.8554359986
 H         -2.4273323951        0.1155134103       -1.7814505628
 H         -0.2756149879        0.0677676996       -3.0092959311
 H          1.8476931828       -0.0799083460        0.7235590330
 Cl        -0.3208779594       -0.0439935324        2.5959610014
 H         -2.4597022157        0.0670289139        0.7071284030
 O          2.1445106981       -0.0387024566       -1.8160225704
 H          2.0177880392       -0.0151778614       -2.7731603097

